Version 4
SHEET 1 1720 680
WIRE 112 -32 -304 -32
WIRE 448 -32 112 -32
WIRE 864 -32 448 -32
WIRE 1040 -32 864 -32
WIRE 1040 0 1040 -32
WIRE 112 16 112 -32
WIRE 448 16 448 -32
WIRE 224 32 160 32
WIRE 400 32 224 32
WIRE 112 64 112 32
WIRE 448 64 448 32
WIRE -304 144 -304 -32
WIRE 864 144 864 -32
WIRE 112 160 112 112
WIRE 224 160 224 32
WIRE 224 160 112 160
WIRE 448 160 448 112
WIRE 576 160 448 160
WIRE 736 160 576 160
WIRE 816 160 736 160
WIRE 736 176 736 160
WIRE 112 192 112 160
WIRE 448 192 448 160
WIRE 864 192 864 160
WIRE 64 272 -80 272
WIRE 656 272 496 272
WIRE 736 272 736 240
WIRE 864 272 864 240
WIRE 864 272 736 272
WIRE 864 304 864 272
WIRE 944 304 864 304
WIRE 1008 304 944 304
WIRE 112 336 112 288
WIRE 304 336 112 336
WIRE 448 336 448 288
WIRE 448 336 304 336
WIRE 304 416 304 336
WIRE -304 464 -304 224
WIRE -144 464 -304 464
WIRE 256 496 192 496
WIRE 304 496 304 464
WIRE -304 512 -304 464
WIRE 864 512 864 304
WIRE 304 544 304 512
WIRE -304 592 -304 560
WIRE -144 592 -144 464
WIRE -144 592 -256 592
WIRE 192 592 192 496
WIRE 192 592 -144 592
WIRE 816 592 192 592
WIRE 864 592 864 560
WIRE -304 640 -304 608
WIRE 864 640 864 608
FLAG -80 352 0
FLAG 656 352 0
FLAG 1040 80 0
FLAG 1008 304 Vout
IOPIN 1008 304 Out
FLAG 304 544 0
FLAG 864 640 0
FLAG -304 640 0
FLAG 944 368 0
FLAG 112 240 0
FLAG 448 240 0
FLAG 576 224 0
SYMBOL cmosn 64 192 R0
SYMATTR InstName M1
SYMATTR Value2 l=1700n w=15000n
SYMBOL cmosn 496 192 M0
SYMATTR InstName M2
SYMATTR Value2 l=1700n w=15000n
SYMBOL voltage -80 256 R0
WINDOW 123 24 124 Left 2
WINDOW 39 0 0 Left 0
SYMATTR Value2 AC 1
SYMATTR InstName V1
SYMATTR Value SINE(0.9 5u 1k 0 0)
SYMBOL voltage 656 256 R0
WINDOW 123 24 124 Left 2
WINDOW 39 0 0 Left 0
SYMATTR Value2 AC 1
SYMATTR InstName V2
SYMATTR Value SINE(0.9 5u 1k 0 0 180)
SYMBOL cmosn 256 416 R0
SYMATTR InstName M0
SYMATTR Value2 l=900n w=16000n
SYMBOL cmosp 816 240 M180
SYMATTR InstName M5
SYMATTR Value2 l=900n w=18000n
SYMBOL voltage 1040 -16 R0
WINDOW 123 0 0 Left 0
WINDOW 39 0 0 Left 0
SYMATTR InstName V3
SYMATTR Value 1.8
SYMBOL cap 928 304 R0
SYMATTR InstName CL
SYMATTR Value 5p
SYMBOL cmosn -256 512 M0
SYMATTR InstName M7
SYMATTR Value2 l=900n w=1600n
SYMBOL cmosn 816 512 R0
SYMATTR InstName M6
SYMATTR Value2 l=900n w=8000n
SYMBOL current -304 144 R0
WINDOW 123 0 0 Left 0
WINDOW 39 0 0 Left 0
SYMATTR InstName I1
SYMATTR Value 2µ
SYMBOL cmosp 160 112 R180
SYMATTR InstName M3
SYMATTR Value2 l=1700n w=34000n
SYMBOL cmosp 400 112 M180
SYMATTR InstName M4
SYMATTR Value2 l=1700n w=34000n
SYMBOL cap 720 176 R0
SYMATTR InstName C1
SYMATTR Value 1p
SYMBOL cap 560 160 R0
SYMATTR InstName C2
SYMATTR Value 5p
TEXT 1088 552 Left 2 ;.op
TEXT 936 440 Left 2 !.INCLUDE tsmc018.lib
TEXT 1096 592 Left 2 ;.ac dec 1000 10 1ghz
TEXT 1096 512 Left 2 !.tran 20m
