Version 4
SHEET 1 1016 680
WIRE 864 -288 -352 -288
WIRE -240 -240 -656 -240
WIRE 96 -240 -240 -240
WIRE 512 -240 96 -240
WIRE 688 -240 512 -240
WIRE 688 -208 688 -240
WIRE -240 -192 -240 -240
WIRE 96 -192 96 -240
WIRE -128 -176 -192 -176
WIRE 48 -176 -128 -176
WIRE -240 -144 -240 -176
WIRE 96 -144 96 -176
WIRE -656 -64 -656 -240
WIRE 512 -64 512 -240
WIRE -240 -48 -240 -96
WIRE -128 -48 -128 -176
WIRE -128 -48 -240 -48
WIRE 96 -48 96 -96
WIRE 336 -48 96 -48
WIRE 464 -48 336 -48
WIRE 336 -32 336 -48
WIRE -240 -16 -240 -48
WIRE 96 -16 96 -48
WIRE 512 -16 512 -48
WIRE -352 64 -352 -288
WIRE -288 64 -352 64
WIRE 208 64 144 64
WIRE 336 64 336 32
WIRE 400 64 336 64
WIRE 512 64 512 32
WIRE 512 64 480 64
WIRE 512 96 512 64
WIRE 592 96 512 96
WIRE 672 96 672 64
WIRE 672 96 592 96
WIRE 720 96 672 96
WIRE -240 128 -240 80
WIRE -48 128 -240 128
WIRE 96 128 96 80
WIRE 96 128 -48 128
WIRE -48 208 -48 128
WIRE 720 208 720 176
WIRE 864 208 864 -288
WIRE 864 208 720 208
WIRE 720 224 720 208
WIRE -656 256 -656 16
WIRE -496 256 -656 256
WIRE 208 256 208 144
WIRE 624 256 208 256
WIRE -96 288 -160 288
WIRE -48 288 -48 256
WIRE -656 304 -656 256
WIRE 512 304 512 96
WIRE -48 336 -48 304
WIRE 624 336 624 256
WIRE 720 336 720 304
WIRE 720 336 624 336
WIRE 720 352 720 336
WIRE -656 384 -656 352
WIRE -496 384 -496 256
WIRE -496 384 -608 384
WIRE -160 384 -160 288
WIRE -160 384 -496 384
WIRE 464 384 -160 384
WIRE 512 384 512 352
WIRE -656 432 -656 400
WIRE 512 432 512 400
FLAG 688 -128 0
FLAG -48 336 0
FLAG 512 432 0
FLAG -656 432 0
FLAG 592 160 0
FLAG -240 32 0
FLAG 96 32 0
FLAG 672 64 Vout
IOPIN 672 64 Out
FLAG 720 432 0
SYMBOL cmosn -288 -16 R0
SYMATTR InstName M1
SYMATTR Value2 l=1700n w=15000n
SYMBOL cmosn 144 -16 M0
SYMATTR InstName M2
SYMATTR Value2 l=1700n w=15000n
SYMBOL cmosn -96 208 R0
SYMATTR InstName M0
SYMATTR Value2 l=900n w=16000n
SYMBOL cmosp 464 32 M180
SYMATTR InstName M5
SYMATTR Value2 l=900n w=18000n
SYMBOL voltage 688 -224 R0
WINDOW 123 0 0 Left 0
WINDOW 39 0 0 Left 0
SYMATTR InstName V3
SYMATTR Value 1.8
SYMBOL cap 576 96 R0
SYMATTR InstName CL
SYMATTR Value 450p
SYMBOL cmosn -608 304 M0
SYMATTR InstName M7
SYMATTR Value2 l=900n w=1600n
SYMBOL cmosn 464 304 R0
SYMATTR InstName M6
SYMATTR Value2 l=900n w=8000n
SYMBOL current -656 -64 R0
WINDOW 123 0 0 Left 0
WINDOW 39 0 0 Left 0
SYMATTR InstName I1
SYMATTR Value 2µ
SYMBOL cmosp -192 -96 R180
SYMATTR InstName M3
SYMATTR Value2 l=1700n w=34000n
SYMBOL cmosp 48 -96 M180
SYMATTR InstName M4
SYMATTR Value2 l=1700n w=34000n
SYMBOL voltage 208 48 R0
WINDOW 123 24 124 Left 2
WINDOW 39 0 0 Left 0
SYMATTR Value2 AC 1
SYMATTR InstName V1
SYMATTR Value PULSE(0 0.2 2m 0.1n 0.1n 20)
SYMBOL res 704 80 R0
SYMATTR InstName R1
SYMATTR Value 100k
SYMBOL res 704 208 R0
SYMATTR InstName R2
SYMATTR Value 100k
SYMBOL voltage 720 336 R0
WINDOW 123 0 0 Left 0
WINDOW 39 0 0 Left 0
SYMATTR InstName V2
SYMATTR Value 0.9
SYMBOL res 496 48 R90
WINDOW 0 0 56 VBottom 2
WINDOW 3 32 56 VTop 2
SYMATTR InstName R3
SYMATTR Value 10k
SYMBOL cap 320 -32 R0
SYMATTR InstName C
SYMATTR Value 150p
TEXT -976 32 Left 2 ;.op
TEXT -976 -32 Left 2 !.INCLUDE tsmc018.lib
TEXT -976 0 Left 2 !.ac dec 1000 100 1Meg
TEXT -976 64 Left 2 ;.tran 20m
